Circuit: *** SPICE deck for cell nand{lay} from library NAND

Ignoring BSIM parameter XL
Ignoring BSIM parameter XW
Ignoring BSIM parameter XL
Ignoring BSIM parameter XW
Direct Newton iteration for .op point succeeded.

Date: Thu Jun 03 13:01:22 2021
Total elapsed time: 0.110 seconds.

tnom = 27
temp = 27
method = modified trap
totiter = 6706
traniter = 6698
tranpoints = 2845
accept = 2448
rejected = 397
matrix size = 31
fillins = 26
solver = Normal
Thread vector: 3.8/2.6[3] 1.9/1.2[3] 0.3/0.4[1] 0.1/0.3[1]  2592/500
Matrix Compiler1: 2.61 KB object code size  0.6/0.3/[0.2]
Matrix Compiler2: 2.73 KB object code size  0.2/0.4/[0.2]

