Circuit: *** SPICE deck for cell nand_sim{sch} from library NAND

Fatal Error: A: Missing node(s).
