Circuit: *** SPICE deck for cell nor{lay} from library NOR

Ignoring BSIM parameter XL
Ignoring BSIM parameter XW
Ignoring BSIM parameter XL
Ignoring BSIM parameter XW
Direct Newton iteration for .op point succeeded.

Date: Fri Jun 04 20:06:12 2021
Total elapsed time: 0.141 seconds.

tnom = 27
temp = 27
method = modified trap
totiter = 7931
traniter = 7925
tranpoints = 2510
accept = 2048
rejected = 462
matrix size = 39
fillins = 26
solver = Normal
Thread vector: 3.9/2.8[2] 2.4/1.7[3] 0.3/0.3[1] 0.2/0.2[1]  2592/500
Matrix Compiler1: 3.00 KB object code size  0.6/0.4/[0.3]
Matrix Compiler2: 3.34 KB object code size  0.3/0.4/[0.3]

